<?xml version="1.0" encoding="UTF-8" standalone="yes"?>
<template encoding-version="1.3">
    <description></description>
    <groupId>fd6033e2-018f-1000-419a-40fff8c59377</groupId>
    <name>API Data Flow</name>
    <snippet>
        <processGroups>
            <id>3ab08a4f-5182-342a-0000-000000000000</id>
            <parentGroupId>3cff20ba-0273-39f8-0000-000000000000</parentGroupId>
            <position>
                <x>0.0</x>
                <y>0.0</y>
            </position>
            <versionedComponentId>3ab08a4f-5182-342a-aeb1-94ed945b7381</versionedComponentId>
            <comments></comments>
            <contents>
                <connections>
                    <id>219449f8-4eea-3b1a-0000-000000000000</id>
                    <parentGroupId>3ab08a4f-5182-342a-0000-000000000000</parentGroupId>
                    <backPressureDataSizeThreshold>1 GB</backPressureDataSizeThreshold>
                    <backPressureObjectThreshold>10000</backPressureObjectThreshold>
                    <bends>
                        <x>-368.0</x>
                        <y>872.0</y>
                    </bends>
                    <destination>
                        <groupId>3ab08a4f-5182-342a-0000-000000000000</groupId>
                        <id>0f95f0c3-757f-3ad8-0000-000000000000</id>
                        <type>PROCESSOR</type>
                        <versionedComponentId>0f95f0c3-757f-3ad8-af17-23c7f13918cb</versionedComponentId>
                    </destination>
                    <flowFileExpiration>0 sec</flowFileExpiration>
                    <labelIndex>0</labelIndex>
                    <loadBalanceCompression>DO_NOT_COMPRESS</loadBalanceCompression>
                    <loadBalancePartitionAttribute></loadBalancePartitionAttribute>
                    <loadBalanceStatus>LOAD_BALANCE_NOT_CONFIGURED</loadBalanceStatus>
                    <loadBalanceStrategy>DO_NOT_LOAD_BALANCE</loadBalanceStrategy>
                    <name></name>
                    <selectedRelationships>success</selectedRelationships>
                    <source>
                        <groupId>3ab08a4f-5182-342a-0000-000000000000</groupId>
                        <id>22f4e7ad-03c1-3c57-0000-000000000000</id>
                        <type>PROCESSOR</type>
                    </source>
                    <zIndex>0</zIndex>
                </connections>
                <connections>
                    <id>2566a7cd-1eec-360b-0000-000000000000</id>
                    <parentGroupId>3ab08a4f-5182-342a-0000-000000000000</parentGroupId>
                    <versionedComponentId>2566a7cd-1eec-360b-a079-66b115d7aeeb</versionedComponentId>
                    <backPressureDataSizeThreshold>1 GB</backPressureDataSizeThreshold>
                    <backPressureObjectThreshold>10000</backPressureObjectThreshold>
                    <bends>
                        <x>248.0</x>
                        <y>528.0</y>
                    </bends>
                    <bends>
                        <x>-48.0</x>
                        <y>528.0</y>
                    </bends>
                    <bends>
                        <x>-48.0</x>
                        <y>576.0</y>
                    </bends>
                    <destination>
                        <groupId>3ab08a4f-5182-342a-0000-000000000000</groupId>
                        <id>fb269664-12b0-3d35-0000-000000000000</id>
                        <type>PROCESSOR</type>
                        <versionedComponentId>fb269664-12b0-3d35-8581-957552100c52</versionedComponentId>
                    </destination>
                    <flowFileExpiration>0 sec</flowFileExpiration>
                    <labelIndex>2</labelIndex>
                    <loadBalanceCompression>DO_NOT_COMPRESS</loadBalanceCompression>
                    <loadBalancePartitionAttribute></loadBalancePartitionAttribute>
                    <loadBalanceStatus>LOAD_BALANCE_NOT_CONFIGURED</loadBalanceStatus>
                    <loadBalanceStrategy>DO_NOT_LOAD_BALANCE</loadBalanceStrategy>
                    <name></name>
                    <selectedRelationships>is_200</selectedRelationships>
                    <source>
                        <groupId>3ab08a4f-5182-342a-0000-000000000000</groupId>
                        <id>70d17b5b-9934-3f58-0000-000000000000</id>
                        <type>PROCESSOR</type>
                        <versionedComponentId>70d17b5b-9934-3f58-b509-563034b30328</versionedComponentId>
                    </source>
                    <zIndex>0</zIndex>
                </connections>
                <connections>
                    <id>27007964-c5f6-3f4d-0000-000000000000</id>
                    <parentGroupId>3ab08a4f-5182-342a-0000-000000000000</parentGroupId>
                    <versionedComponentId>27007964-c5f6-3f4d-9c20-4db294b8fdee</versionedComponentId>
                    <backPressureDataSizeThreshold>1 GB</backPressureDataSizeThreshold>
                    <backPressureObjectThreshold>10000</backPressureObjectThreshold>
                    <bends>
                        <x>664.0</x>
                        <y>272.0</y>
                    </bends>
                    <bends>
                        <x>248.0</x>
                        <y>272.0</y>
                    </bends>
                    <bends>
                        <x>248.0</x>
                        <y>320.0</y>
                    </bends>
                    <destination>
                        <groupId>3ab08a4f-5182-342a-0000-000000000000</groupId>
                        <id>70d17b5b-9934-3f58-0000-000000000000</id>
                        <type>PROCESSOR</type>
                        <versionedComponentId>70d17b5b-9934-3f58-b509-563034b30328</versionedComponentId>
                    </destination>
                    <flowFileExpiration>0 sec</flowFileExpiration>
                    <labelIndex>2</labelIndex>
                    <loadBalanceCompression>DO_NOT_COMPRESS</loadBalanceCompression>
                    <loadBalancePartitionAttribute></loadBalancePartitionAttribute>
                    <loadBalanceStatus>LOAD_BALANCE_NOT_CONFIGURED</loadBalanceStatus>
                    <loadBalanceStrategy>DO_NOT_LOAD_BALANCE</loadBalanceStrategy>
                    <name></name>
                    <selectedRelationships>Response</selectedRelationships>
                    <source>
                        <groupId>3ab08a4f-5182-342a-0000-000000000000</groupId>
                        <id>637efdff-5f13-3be3-0000-000000000000</id>
                        <type>PROCESSOR</type>
                        <versionedComponentId>637efdff-5f13-3be3-9451-56a972e23b57</versionedComponentId>
                    </source>
                    <zIndex>0</zIndex>
                </connections>
                <connections>
                    <id>2c2b63d3-543a-3864-0000-000000000000</id>
                    <parentGroupId>3ab08a4f-5182-342a-0000-000000000000</parentGroupId>
                    <backPressureDataSizeThreshold>1 GB</backPressureDataSizeThreshold>
                    <backPressureObjectThreshold>10000</backPressureObjectThreshold>
                    <destination>
                        <groupId>3ab08a4f-5182-342a-0000-000000000000</groupId>
                        <id>ee907bfe-f55b-3d8f-0000-000000000000</id>
                        <type>PROCESSOR</type>
                    </destination>
                    <flowFileExpiration>0 sec</flowFileExpiration>
                    <labelIndex>1</labelIndex>
                    <loadBalanceCompression>DO_NOT_COMPRESS</loadBalanceCompression>
                    <loadBalancePartitionAttribute></loadBalancePartitionAttribute>
                    <loadBalanceStatus>LOAD_BALANCE_NOT_CONFIGURED</loadBalanceStatus>
                    <loadBalanceStrategy>DO_NOT_LOAD_BALANCE</loadBalanceStrategy>
                    <name></name>
                    <selectedRelationships>success</selectedRelationships>
                    <source>
                        <groupId>3ab08a4f-5182-342a-0000-000000000000</groupId>
                        <id>52bbbe87-c67f-3a29-0000-000000000000</id>
                        <type>PROCESSOR</type>
                        <versionedComponentId>52bbbe87-c67f-3a29-ac9f-81d4ffbb6a3c</versionedComponentId>
                    </source>
                    <zIndex>0</zIndex>
                </connections>
                <connections>
                    <id>52dd94c0-7915-345d-0000-000000000000</id>
                    <parentGroupId>3ab08a4f-5182-342a-0000-000000000000</parentGroupId>
                    <versionedComponentId>52dd94c0-7915-345d-aeb8-f47b2c9f469c</versionedComponentId>
                    <backPressureDataSizeThreshold>1 GB</backPressureDataSizeThreshold>
                    <backPressureObjectThreshold>10000</backPressureObjectThreshold>
                    <bends>
                        <x>664.0</x>
                        <y>272.0</y>
                    </bends>
                    <bends>
                        <x>1072.0</x>
                        <y>272.0</y>
                    </bends>
                    <bends>
                        <x>1072.0</x>
                        <y>320.0</y>
                    </bends>
                    <destination>
                        <groupId>3ab08a4f-5182-342a-0000-000000000000</groupId>
                        <id>52bbbe87-c67f-3a29-0000-000000000000</id>
                        <type>PROCESSOR</type>
                        <versionedComponentId>52bbbe87-c67f-3a29-ac9f-81d4ffbb6a3c</versionedComponentId>
                    </destination>
                    <flowFileExpiration>0 sec</flowFileExpiration>
                    <labelIndex>2</labelIndex>
                    <loadBalanceCompression>DO_NOT_COMPRESS</loadBalanceCompression>
                    <loadBalancePartitionAttribute></loadBalancePartitionAttribute>
                    <loadBalanceStatus>LOAD_BALANCE_NOT_CONFIGURED</loadBalanceStatus>
                    <loadBalanceStrategy>DO_NOT_LOAD_BALANCE</loadBalanceStrategy>
                    <name></name>
                    <selectedRelationships>Failure</selectedRelationships>
                    <selectedRelationships>No Retry</selectedRelationships>
                    <selectedRelationships>Retry</selectedRelationships>
                    <source>
                        <groupId>3ab08a4f-5182-342a-0000-000000000000</groupId>
                        <id>637efdff-5f13-3be3-0000-000000000000</id>
                        <type>PROCESSOR</type>
                        <versionedComponentId>637efdff-5f13-3be3-9451-56a972e23b57</versionedComponentId>
                    </source>
                    <zIndex>0</zIndex>
                </connections>
                <connections>
                    <id>a099c930-07c2-3b26-0000-000000000000</id>
                    <parentGroupId>3ab08a4f-5182-342a-0000-000000000000</parentGroupId>
                    <backPressureDataSizeThreshold>1 GB</backPressureDataSizeThreshold>
                    <backPressureObjectThreshold>10000</backPressureObjectThreshold>
                    <destination>
                        <groupId>3ab08a4f-5182-342a-0000-000000000000</groupId>
                        <id>ee907bfe-f55b-3d8f-0000-000000000000</id>
                        <type>PROCESSOR</type>
                    </destination>
                    <flowFileExpiration>0 sec</flowFileExpiration>
                    <labelIndex>1</labelIndex>
                    <loadBalanceCompression>DO_NOT_COMPRESS</loadBalanceCompression>
                    <loadBalancePartitionAttribute></loadBalancePartitionAttribute>
                    <loadBalanceStatus>LOAD_BALANCE_NOT_CONFIGURED</loadBalanceStatus>
                    <loadBalanceStrategy>DO_NOT_LOAD_BALANCE</loadBalanceStrategy>
                    <name></name>
                    <selectedRelationships>success</selectedRelationships>
                    <source>
                        <groupId>3ab08a4f-5182-342a-0000-000000000000</groupId>
                        <id>65d5973c-ec41-36da-0000-000000000000</id>
                        <type>PROCESSOR</type>
                        <versionedComponentId>65d5973c-ec41-36da-b5d9-7b62ebe5ab0e</versionedComponentId>
                    </source>
                    <zIndex>0</zIndex>
                </connections>
                <connections>
                    <id>cbc87af9-3df6-32d0-0000-000000000000</id>
                    <parentGroupId>3ab08a4f-5182-342a-0000-000000000000</parentGroupId>
                    <versionedComponentId>cbc87af9-3df6-32d0-91f2-cb0368ef492e</versionedComponentId>
                    <backPressureDataSizeThreshold>1 GB</backPressureDataSizeThreshold>
                    <backPressureObjectThreshold>10000</backPressureObjectThreshold>
                    <bends>
                        <x>344.0</x>
                        <y>64.0</y>
                    </bends>
                    <destination>
                        <groupId>3ab08a4f-5182-342a-0000-000000000000</groupId>
                        <id>637efdff-5f13-3be3-0000-000000000000</id>
                        <type>PROCESSOR</type>
                        <versionedComponentId>637efdff-5f13-3be3-9451-56a972e23b57</versionedComponentId>
                    </destination>
                    <flowFileExpiration>0 sec</flowFileExpiration>
                    <labelIndex>0</labelIndex>
                    <loadBalanceCompression>DO_NOT_COMPRESS</loadBalanceCompression>
                    <loadBalancePartitionAttribute></loadBalancePartitionAttribute>
                    <loadBalanceStatus>LOAD_BALANCE_NOT_CONFIGURED</loadBalanceStatus>
                    <loadBalanceStrategy>DO_NOT_LOAD_BALANCE</loadBalanceStrategy>
                    <name></name>
                    <selectedRelationships>success</selectedRelationships>
                    <source>
                        <groupId>3ab08a4f-5182-342a-0000-000000000000</groupId>
                        <id>92c63626-1f8a-31c7-0000-000000000000</id>
                        <type>PROCESSOR</type>
                        <versionedComponentId>92c63626-1f8a-31c7-a84d-876c11376fa7</versionedComponentId>
                    </source>
                    <zIndex>0</zIndex>
                </connections>
                <connections>
                    <id>d80d99c8-ba6c-3030-0000-000000000000</id>
                    <parentGroupId>3ab08a4f-5182-342a-0000-000000000000</parentGroupId>
                    <backPressureDataSizeThreshold>1 GB</backPressureDataSizeThreshold>
                    <backPressureObjectThreshold>10000</backPressureObjectThreshold>
                    <bends>
                        <x>-368.0</x>
                        <y>736.0</y>
                    </bends>
                    <destination>
                        <groupId>3ab08a4f-5182-342a-0000-000000000000</groupId>
                        <id>22f4e7ad-03c1-3c57-0000-000000000000</id>
                        <type>PROCESSOR</type>
                    </destination>
                    <flowFileExpiration>0 sec</flowFileExpiration>
                    <labelIndex>0</labelIndex>
                    <loadBalanceCompression>DO_NOT_COMPRESS</loadBalanceCompression>
                    <loadBalancePartitionAttribute></loadBalancePartitionAttribute>
                    <loadBalanceStatus>LOAD_BALANCE_NOT_CONFIGURED</loadBalanceStatus>
                    <loadBalanceStrategy>DO_NOT_LOAD_BALANCE</loadBalanceStrategy>
                    <name></name>
                    <selectedRelationships>success</selectedRelationships>
                    <source>
                        <groupId>3ab08a4f-5182-342a-0000-000000000000</groupId>
                        <id>fb269664-12b0-3d35-0000-000000000000</id>
                        <type>PROCESSOR</type>
                        <versionedComponentId>fb269664-12b0-3d35-8581-957552100c52</versionedComponentId>
                    </source>
                    <zIndex>0</zIndex>
                </connections>
                <connections>
                    <id>fa7bc1ec-d68a-3d17-0000-000000000000</id>
                    <parentGroupId>3ab08a4f-5182-342a-0000-000000000000</parentGroupId>
                    <versionedComponentId>fa7bc1ec-d68a-3d17-9950-dcb982f8c80e</versionedComponentId>
                    <backPressureDataSizeThreshold>1 GB</backPressureDataSizeThreshold>
                    <backPressureObjectThreshold>10000</backPressureObjectThreshold>
                    <bends>
                        <x>248.0</x>
                        <y>528.0</y>
                    </bends>
                    <bends>
                        <x>536.0</x>
                        <y>528.0</y>
                    </bends>
                    <bends>
                        <x>536.0</x>
                        <y>576.0</y>
                    </bends>
                    <destination>
                        <groupId>3ab08a4f-5182-342a-0000-000000000000</groupId>
                        <id>65d5973c-ec41-36da-0000-000000000000</id>
                        <type>PROCESSOR</type>
                        <versionedComponentId>65d5973c-ec41-36da-b5d9-7b62ebe5ab0e</versionedComponentId>
                    </destination>
                    <flowFileExpiration>0 sec</flowFileExpiration>
                    <labelIndex>2</labelIndex>
                    <loadBalanceCompression>DO_NOT_COMPRESS</loadBalanceCompression>
                    <loadBalancePartitionAttribute></loadBalancePartitionAttribute>
                    <loadBalanceStatus>LOAD_BALANCE_NOT_CONFIGURED</loadBalanceStatus>
                    <loadBalanceStrategy>DO_NOT_LOAD_BALANCE</loadBalanceStrategy>
                    <name></name>
                    <selectedRelationships>unmatched</selectedRelationships>
                    <source>
                        <groupId>3ab08a4f-5182-342a-0000-000000000000</groupId>
                        <id>70d17b5b-9934-3f58-0000-000000000000</id>
                        <type>PROCESSOR</type>
                        <versionedComponentId>70d17b5b-9934-3f58-b509-563034b30328</versionedComponentId>
                    </source>
                    <zIndex>0</zIndex>
                </connections>
                <controllerServices>
                    <id>0176020c-e577-342e-0000-000000000000</id>
                    <parentGroupId>3ab08a4f-5182-342a-0000-000000000000</parentGroupId>
                    <versionedComponentId>0176020c-e577-342e-8d2a-113c2a4ad7b1</versionedComponentId>
                    <bulletinLevel>WARN</bulletinLevel>
                    <bundle>
                        <artifact>nifi-record-serialization-services-nar</artifact>
                        <group>org.apache.nifi</group>
                        <version>1.26.0</version>
                    </bundle>
                    <comments></comments>
                    <descriptors>
                        <entry>
                            <key>schema-access-strategy</key>
                            <value>
<name>schema-access-strategy</name>
                            </value>
                        </entry>
                        <entry>
                            <key>schema-registry</key>
                            <value>
<dependencies>
    <dependentValues>confluent-encoded</dependentValues>
    <dependentValues>schema-name</dependentValues>
    <dependentValues>hwx-schema-ref-attributes</dependentValues>
    <dependentValues>hwx-content-encoded-schema</dependentValues>
    <propertyName>schema-access-strategy</propertyName>
</dependencies>
<identifiesControllerService>org.apache.nifi.schemaregistry.services.SchemaRegistry</identifiesControllerService>
<name>schema-registry</name>
                            </value>
                        </entry>
                        <entry>
                            <key>schema-name</key>
                            <value>
<dependencies>
    <dependentValues>schema-name</dependentValues>
    <propertyName>schema-access-strategy</propertyName>
</dependencies>
<name>schema-name</name>
                            </value>
                        </entry>
                        <entry>
                            <key>schema-version</key>
                            <value>
<dependencies>
    <dependentValues>schema-name</dependentValues>
    <propertyName>schema-access-strategy</propertyName>
</dependencies>
<name>schema-version</name>
                            </value>
                        </entry>
                        <entry>
                            <key>schema-branch</key>
                            <value>
<dependencies>
    <dependentValues>schema-name</dependentValues>
    <propertyName>schema-access-strategy</propertyName>
</dependencies>
<name>schema-branch</name>
                            </value>
                        </entry>
                        <entry>
                            <key>schema-text</key>
                            <value>
<dependencies>
    <dependentValues>schema-text-property</dependentValues>
    <propertyName>schema-access-strategy</propertyName>
</dependencies>
<name>schema-text</name>
                            </value>
                        </entry>
                        <entry>
                            <key>schema-inference-cache</key>
                            <value>
<dependencies>
    <dependentValues>infer-schema</dependentValues>
    <propertyName>schema-access-strategy</propertyName>
</dependencies>
<identifiesControllerService>org.apache.nifi.serialization.RecordSchemaCacheService</identifiesControllerService>
<name>schema-inference-cache</name>
                            </value>
                        </entry>
                        <entry>
                            <key>starting-field-strategy</key>
                            <value>
<name>starting-field-strategy</name>
                            </value>
                        </entry>
                        <entry>
                            <key>starting-field-name</key>
                            <value>
<dependencies>
    <dependentValues>NESTED_FIELD</dependentValues>
    <propertyName>starting-field-strategy</propertyName>
</dependencies>
<name>starting-field-name</name>
                            </value>
                        </entry>
                        <entry>
                            <key>schema-application-strategy</key>
                            <value>
<dependencies>
    <dependentValues>confluent-encoded</dependentValues>
    <dependentValues>schema-name</dependentValues>
    <dependentValues>schema-text-property</dependentValues>
    <dependentValues>hwx-schema-ref-attributes</dependentValues>
    <dependentValues>hwx-content-encoded-schema</dependentValues>
    <propertyName>schema-access-strategy</propertyName>
</dependencies>
<dependencies>
    <dependentValues>NESTED_FIELD</dependentValues>
    <propertyName>starting-field-strategy</propertyName>
</dependencies>
<name>schema-application-strategy</name>
                            </value>
                        </entry>
                        <entry>
                            <key>Max String Length</key>
                            <value>
<name>Max String Length</name>
                            </value>
                        </entry>
                        <entry>
                            <key>Allow Comments</key>
                            <value>
<name>Allow Comments</name>
                            </value>
                        </entry>
                        <entry>
                            <key>Date Format</key>
                            <value>
<name>Date Format</name>
                            </value>
                        </entry>
                        <entry>
                            <key>Time Format</key>
                            <value>
<name>Time Format</name>
                            </value>
                        </entry>
                        <entry>
                            <key>Timestamp Format</key>
                            <value>
<name>Timestamp Format</name>
                            </value>
                        </entry>
                    </descriptors>
                    <name>JsonTreeReader</name>
                    <persistsState>false</persistsState>
                    <properties>
                        <entry>
                            <key>schema-access-strategy</key>
                            <value>infer-schema</value>
                        </entry>
                        <entry>
                            <key>schema-registry</key>
                        </entry>
                        <entry>
                            <key>schema-name</key>
                            <value>${schema.name}</value>
                        </entry>
                        <entry>
                            <key>schema-version</key>
                        </entry>
                        <entry>
                            <key>schema-branch</key>
                        </entry>
                        <entry>
                            <key>schema-text</key>
                            <value>${avro.schema}</value>
                        </entry>
                        <entry>
                            <key>schema-inference-cache</key>
                        </entry>
                        <entry>
                            <key>starting-field-strategy</key>
                            <value>ROOT_NODE</value>
                        </entry>
                        <entry>
                            <key>starting-field-name</key>
                        </entry>
                        <entry>
                            <key>schema-application-strategy</key>
                            <value>SELECTED_PART</value>
                        </entry>
                        <entry>
                            <key>Max String Length</key>
                            <value>20 MB</value>
                        </entry>
                        <entry>
                            <key>Allow Comments</key>
                            <value>false</value>
                        </entry>
                        <entry>
                            <key>Date Format</key>
                        </entry>
                        <entry>
                            <key>Time Format</key>
                        </entry>
                        <entry>
                            <key>Timestamp Format</key>
                        </entry>
                    </properties>
                    <state>ENABLED</state>
                    <type>org.apache.nifi.json.JsonTreeReader</type>
                </controllerServices>
                <controllerServices>
                    <id>9556e78f-864a-3e90-0000-000000000000</id>
                    <parentGroupId>3ab08a4f-5182-342a-0000-000000000000</parentGroupId>
                    <versionedComponentId>9556e78f-864a-3e90-85af-87f9cc0d1e44</versionedComponentId>
                    <bulletinLevel>WARN</bulletinLevel>
                    <bundle>
                        <artifact>nifi-ssl-context-service-nar</artifact>
                        <group>org.apache.nifi</group>
                        <version>1.26.0</version>
                    </bundle>
                    <comments></comments>
                    <descriptors>
                        <entry>
                            <key>Keystore Filename</key>
                            <value>
<name>Keystore Filename</name>
                            </value>
                        </entry>
                        <entry>
                            <key>Keystore Password</key>
                            <value>
<name>Keystore Password</name>
                            </value>
                        </entry>
                        <entry>
                            <key>key-password</key>
                            <value>
<name>key-password</name>
                            </value>
                        </entry>
                        <entry>
                            <key>Keystore Type</key>
                            <value>
<name>Keystore Type</name>
                            </value>
                        </entry>
                        <entry>
                            <key>Truststore Filename</key>
                            <value>
<name>Truststore Filename</name>
                            </value>
                        </entry>
                        <entry>
                            <key>Truststore Password</key>
                            <value>
<name>Truststore Password</name>
                            </value>
                        </entry>
                        <entry>
                            <key>Truststore Type</key>
                            <value>
<name>Truststore Type</name>
                            </value>
                        </entry>
                        <entry>
                            <key>SSL Protocol</key>
                            <value>
<name>SSL Protocol</name>
                            </value>
                        </entry>
                    </descriptors>
                    <name>StandardSSLContextService</name>
                    <persistsState>false</persistsState>
                    <properties>
                        <entry>
                            <key>Keystore Filename</key>
                        </entry>
                        <entry>
                            <key>Keystore Password</key>
                        </entry>
                        <entry>
                            <key>key-password</key>
                        </entry>
                        <entry>
                            <key>Keystore Type</key>
                        </entry>